@<TRIPOS>MOLECULE
IT1T
 63 63 0 0 0
SMALL
GASTEIGER

@<TRIPOS>ATOM
      1 C1         16.2630   -6.2800   67.1020 C.3   1  IT1T    -0.0455
      2 N1         17.9260   -7.9840   67.6150 N.3   1  IT1T    -0.2832
      3 S1         18.8530   -9.8430   69.4940 S.3   1  IT1T    -0.0932
      4 C2         17.6610   -6.5460   67.6430 C.3   1  IT1T     0.0316
      5 N2         18.2090   -7.3820   69.7010 N.pl3 1  IT1T    -0.3060
      6 S2         20.2660   -6.1330   72.2410 S.3   1  IT1T    -0.1206
      7 C3         18.7290   -5.8120   66.8360 C.3   1  IT1T    -0.0455
      8 N3         20.7210   -8.1890   73.6900 N.3   1  IT1T    -0.2900
      9 C4         18.2290   -8.3790   68.8590 C.3   1  IT1T     0.1272
     10 N4         22.5090   -7.4970   72.3240 N.3   1  IT1T    -0.2900
     11 C5         18.9810   -9.0930   71.0610 C.2   1  IT1T    -0.0078
     12 C6         17.7520   -6.1320   69.1200 C.3   1  IT1T     0.0320
     13 C7         18.5880   -7.7370   70.9550 C.2   1  IT1T     0.0247
     14 C8         18.6210   -6.7600   72.1050 C.3   1  IT1T     0.0350
     15 C9         21.2550   -7.3690   72.7790 C.3   1  IT1T     0.1078
     16 C10        21.3010   -9.3400   74.3660 C.3   1  IT1T     0.0097
     17 C11        22.1470   -9.0060   75.5860 C.3   1  IT1T    -0.0375
     18 C12        22.2680  -10.2460   76.4700 C.3   1  IT1T    -0.0516
     19 C13        22.8210  -11.4530   75.7100 C.3   1  IT1T    -0.0530
     20 C14        22.1440  -11.6820   74.3500 C.3   1  IT1T    -0.0516
     21 C15        21.9670  -10.4100   73.5160 C.3   1  IT1T    -0.0375
     22 C16        22.9540   -7.4320   70.9310 C.3   1  IT1T     0.0097
     23 C17        21.8950   -7.6050   69.8450 C.3   1  IT1T    -0.0375
     24 C18        22.5520   -7.7520   68.4730 C.3   1  IT1T    -0.0516
     25 C19        23.5120   -6.6030   68.1570 C.3   1  IT1T    -0.0530
     26 C20        24.5160   -6.3620   69.2800 C.3   1  IT1T    -0.0516
     27 C21        23.8280   -6.2180   70.6370 C.3   1  IT1T    -0.0375
     28 HN1        17.8870   -8.5770   66.7990 H     1  IT1T     0.1250
     29 HN3        19.7680   -7.9770   73.9490 H     1  IT1T     0.1244
     30 H4         23.2250   -7.6560   73.0180 H     1  IT1T     0.1244
     31 H5         19.3070   -9.5830   71.9670 H     1  IT1T     0.0707
     32 H62        16.7820   -5.8320   69.5170 H     1  IT1T     0.0482
     33 H63        18.4920   -5.3440   69.2590 H     1  IT1T     0.0482
     34 H82        18.3410   -7.2660   73.0290 H     1  IT1T     0.0439
     35 H83        17.9300   -5.9400   71.9110 H     1  IT1T     0.0439
     36 H10        20.4360   -9.8510   74.7880 H     1  IT1T     0.0461
     37 H112       23.1390   -8.6890   75.2650 H     1  IT1T     0.0280
     38 H113       21.6730   -8.2020   76.1490 H     1  IT1T     0.0280
     39 H122       21.2800  -10.4980   76.8560 H     1  IT1T     0.0266
     40 H123       22.9290  -10.0210   77.3070 H     1  IT1T     0.0266
     41 H132       23.8870  -11.2970   75.5430 H     1  IT1T     0.0265
     42 H133       22.6880  -12.3450   76.3230 H     1  IT1T     0.0265
     43 H142       22.7520  -12.3830   73.7790 H     1  IT1T     0.0266
     44 H143       21.1640  -12.1280   74.5190 H     1  IT1T     0.0266
     45 H152       22.9420  -10.0550   73.1820 H     1  IT1T     0.0280
     46 H153       21.3430  -10.6270   72.6490 H     1  IT1T     0.0280
     47 H16        23.6180   -8.2880   70.8110 H     1  IT1T     0.0461
     48 H172       21.3060   -8.4970   70.0580 H     1  IT1T     0.0280
     49 H173       21.2400   -6.7340   69.8390 H     1  IT1T     0.0280
     50 H182       21.7720   -7.7750   67.7120 H     1  IT1T     0.0266
     51 H183       23.1030   -8.6920   68.4430 H     1  IT1T     0.0266
     52 H192       24.0580   -6.8430   67.2450 H     1  IT1T     0.0265
     53 H193       22.9350   -5.6930   67.9960 H     1  IT1T     0.0265
     54 H202       25.2060   -7.2050   69.3220 H     1  IT1T     0.0266
     55 H203       25.0770   -5.4520   69.0670 H     1  IT1T     0.0266
     56 H212       23.2060   -5.3230   70.6290 H     1  IT1T     0.0280
     57 H213       24.5850   -6.1230   71.4160 H     1  IT1T     0.0280
     58 H11        16.2150   -6.5790   66.0550 H     1  IT1T     0.0248
     59 H12        16.0370   -5.2170   67.1870 H     1  IT1T     0.0248
     60 H13        15.5360   -6.8530   67.6770 H     1  IT1T     0.0248
     61 H31        18.6620   -6.1080   65.7890 H     1  IT1T     0.0248
     62 H32        19.7160   -6.0670   67.2230 H     1  IT1T     0.0248
     63 H33        18.5730   -4.7370   66.9200 H     1  IT1T     0.0248
@<TRIPOS>BOND
     1     1    60    1
     2     1    58    1
     3     1    59    1
     4     1     4    1
     5    16    17    1
     6    16    21    1
     7    16    36    1
     8    17    38    1
     9    17    18    1
    10    17    37    1
    11    18    39    1
    12    18    40    1
    13    18    19    1
    14    19    41    1
    15    19    20    1
    16    19    42    1
    17    20    21    1
    18    20    43    1
    19    20    44    1
    20    21    45    1
    21    21    46    1
    22    22    23    1
    23    22    27    1
    24    22    47    1
    25    23    24    1
    26    23    48    1
    27    23    49    1
    28    24    25    1
    29    24    50    1
    30    24    51    1
    31    25    53    1
    32    25    26    1
    33    25    52    1
    34     4     7    1
    35     4    12    1
    36    26    54    1
    37    26    55    1
    38    26    27    1
    39    27    56    1
    40    27    57    1
    41     7    61    1
    42     7    62    1
    43     7    63    1
    44    11    31    1
    45    11    13    2
    46    12    33    1
    47    12    32    1
    48    13    14    1
    49    14    35    1
    50    14    34    1
    51     2    28    1
    52     2     4    1
    53     2     9    1
    54     5     9    1
    55     5    12    1
    56     5    13    1
    57     8    29    1
    58     8    15    1
    59     8    16    1
    60    10    15    1
    61    10    22    1
    62    10    30    1
    63     3     9    1
