@<TRIPOS>MOLECULE
jz4.pdb
10 10 1 0 0
SMALL
NO_CHARGES


@<TRIPOS>ATOM
      1 C4         24.2940  -24.1240   -0.0710 C.3       1 JZ4    0.0000
      2 C7         21.5530  -27.2140   -4.1120 C.ar      1 JZ4    0.0000
      3 C8         22.0680  -26.7470   -5.3310 C.ar      1 JZ4    0.0000
      4 C9         22.6710  -25.5120   -5.4480 C.ar      1 JZ4    0.0000
      5 C10        22.7690  -24.7300   -4.2950 C.ar      1 JZ4    0.0000
      6 C11        21.6930  -26.4590   -2.9540 C.ar      1 JZ4    0.0000
      7 C12        22.2940  -25.1870   -3.0750 C.ar      1 JZ4    0.0000
      8 C13        22.4630  -24.4140   -1.8080 C.3       1 JZ4    0.0000
      9 C14        23.9250  -24.7040   -1.3940 C.3       1 JZ4    0.0000
     10 OAB        23.4120  -23.5360   -4.3420 O.3       1 JZ4    0.0000
@<TRIPOS>BOND
     1    1    9 1
     2    2    3 ar
     3    2    6 ar
     4    3    4 ar
     5    4    5 ar
     6    5    7 ar
     7    5   10 1
     8    6    7 ar
     9    7    8 1
    10    8    9 1
@<TRIPOS>SUBSTRUCTURE
     1 JZ4     1 RESIDUE           4 A     JZ4     0 ROOT
